@<TRIPOS>MOLECULE
box.pdb
19 19 1 0 0
SMALL
AMBER ff99SB


@<TRIPOS>ATOM
      1 C1         24.0560   -0.3410   66.2610 C.ar      1 AZM    0.5046
      2 C2         23.9230    1.4700   67.8420 C.ar      1 AZM    0.1991
      3 C3         23.9660    1.9240   70.1400 C.2       1 AZM    0.2144
      4 C4         23.9580    3.0720   71.1500 C.3       1 AZM    0.0131
      5 N1         24.0550   -1.5300   63.7260 N.3       1 AZM   -0.0924
      6 N2         23.8170    1.8290   66.5460 N.ar      1 AZM   -0.1157
      7 N3         23.8800    0.8850   65.7260 N.ar      1 AZM   -0.0254
      8 N4         23.9030    2.3540   68.8710 N.am      1 AZM   -0.2626
      9 O1         23.0720   -2.8330   65.7140 O.2       1 AZM   -0.4770
     10 O2         25.5660   -2.5270   65.5730 O.2       1 AZM   -0.4770
     11 O3         24.0190    0.7350   70.4850 O.2       1 AZM   -0.2777
     12 S1         24.1910   -1.8690   65.3030 S.o2      1 AZM   -0.0872
     13 S2         24.1500   -0.2410   67.9260 S.2       1 AZM    0.1005
     14 HN4        23.8400    3.3440   68.6800 H         1 AZM    0.1578
     15 H11        23.1470   -1.1270   63.5450 H         1 AZM    0.2635
     16 H12        24.7740   -0.8720   63.4600 H         1 AZM    0.2635
     17 H41        22.9810    3.5540   71.1450 H         1 AZM    0.0328
     18 H42        24.1650    2.6810   72.1460 H         1 AZM    0.0328
     19 H43        24.7230    3.7990   70.8790 H         1 AZM    0.0328
@<TRIPOS>BOND
     1    1    7 ar
     2    1   12 1
     3    1   13 ar
     4    2    6 ar
     5    2    8 1
     6    2   13 ar
     7    3    4 1
     8    3    8 am
     9    3   11 2
    10    4   17 1
    11    4   18 1
    12    4   19 1
    13   15    5 1
    14   16    5 1
    15   14    8 1
    16    5   12 1
    17    6    7 ar
    18    9   12 2
    19   10   12 2
@<TRIPOS>SUBSTRUCTURE
     1 AZM     1 RESIDUE           4 B     AZM     0 ROOT
